/*--------------------------------*- C++ -*----------------------------------*\
|       o          |                                                          |
|    o     o       | FOAM                                                    |
|   o   O   o      | Version: 4.2.0                                           |
|    o     o       | Web:     http://www.esi.com                            |
|       o          |                                                          |
\*---------------------------------------------------------------------------*/
FoamFile
{
    version 2.0;
    format ascii;
    class dictionary;
    location constant;
    object vibroacousticProperties;
}

    c0      [0 2 -2 0 0 0 0] 343;
    EModul   [1 -1 -2 0 0 0 0 0] 7e10;
    PoissonRatio [0 0 0 0 0 0 0] 0.3298;
    damp0 [0 0 0 0 0 0 0]  0.;
    damp1 [0 0 -1 0 0 0 0] 0.;
    damp2 [0 0 1 0 0 0 0]  0.;
    plateThickness [0 1 0 0 0 0 0] 0.00315;
    plateRho [1 -3 0 0 0 0 0] 2700;
