/*--------------------------------*- C++ -*----------------------------------*\
| =========                 |                                                 |
| \\      /  F ield         | OpenFOAM: The Open Source CFD Toolbox           |
|  \\    /   O peration     | Version:  1.6                                   |
|   \\  /    A nd           | Web:      www.OpenFOAM.org                      |
|    \\/     M anipulation  |                                                 |
\*---------------------------------------------------------------------------*/
FoamFile
{
    version     2.0;
    format      ascii;
    class       dictionary;
    location    "constant";
    object      transportProperties;
}
// * * * * * * * * * * * * * * * * * * * * * * * * * * * * * * * * * * * * * //

transportModel  approachingNu;

approachingNuCoeffs
{
    nu_desired          nu_desired [ 0 2 -1 0 0 0 0 ] 1e-06;
    nu_start            nu_start [ 0 2 -1 0 0 0 0 ] 1.0;
    some_fixed_time     some_fixed_time [ 0 0 1 0 0 0 0 ] 200;
}
