FoamFile
{
    version     2.0;
    format      ascii;
    class       dictionary;
    object      foamMeshSetupDict;
}
// * * * * * * * * * * * * * * * * * * * * * * * * * * * * * * * * * * * * * //

volRefine 
(
"VR.*"
);
